*HEADING
Shell Verification
*NODE
1, 0.000000, 0.000000, 0.000000
2, 1.000000, 0.000000, 0.000000
3, 1.000000, 1.000000, 0.000000
4, 0.000000, 1.000000, 0.000000
5, 0.500000, 0.000000, 0.000000
6, 1.000000, 0.500000, 0.000000
7, 0.500000, 1.000000, 0.000000
8, 0.000000, 0.500000, 0.000000
9, 0.750000, 0.750000, 0.000000
10, 0.625000, 0.375000, 0.000000
11, 0.281250, 0.281250, 0.000000
12, 0.345703, 0.654297, 0.000000
*ELEMENT, TYPE=S3, ELSET=AllShells
13, 2, 10, 5
14, 6, 10, 2
15, 4, 12, 7
16, 8, 12, 4
17, 5, 11, 1
18, 1, 11, 8
19, 3, 9, 6
20, 7, 9, 3
21, 9, 12, 10
22, 7, 12, 9
23, 9, 10, 6
24, 10, 12, 11
25, 11, 12, 8
26, 10, 11, 5
*MATERIAL, NAME=Mat1
*CONDUCTIVITY
1.0
*DENSITY
1.0
*SPECIFIC HEAT
1.0
*SHELL SECTION, ELSET=AllShells, MATERIAL=Mat1
1.0
*NSET, NSET=N_All
1, 2, 3, 4, 5, 6, 7, 8, 9, 10
11, 12
*INITIAL CONDITIONS, TYPE=TEMPERATURE
N_All, 293.0
*STEP
*HEAT TRANSFER
1.0, 1.0
*BOUNDARY
1, 11, 11, 293.0
2, 11, 11, 293.0
5, 11, 11, 293.0
*CFLUX
3, 11, 100.0
4, 11, 100.0
7, 11, 100.0
*NODE FILE
NT, RFL
*END STEP