*HEADING
Tet10 Unit Test
*NODE
1, 0.000000, 0.000000, 0.000000
2, 1.000000, 0.000000, 0.000000
3, 0.000000, 1.000000, 0.000000
4, 0.000000, 0.000000, 1.000000
5, 0.500000, 0.000000, 0.000000
6, 0.500000, 0.500000, 0.000000
7, 0.000000, 0.500000, 0.000000
8, 0.000000, 0.000000, 0.500000
9, 0.500000, 0.000000, 0.500000
10, 0.000000, 0.500000, 0.500000
*ELEMENT, TYPE=C3D10, ELSET=E1
1, 3, 1, 2, 4, 7, 5, 6
10, 8, 9
*MATERIAL, NAME=Steel
*ELASTIC
210000.0, 0.3
*SOLID SECTION, ELSET=E1, MATERIAL=Steel
*BOUNDARY
1, 1, 3, 0.0
2, 2, 3, 0.0
3, 3, 3, 0.0
*STEP
*STATIC
*BOUNDARY
4, 3, 3, 0.001
*EL FILE
S
*EL PRINT, ELSET=E1
S
*END STEP