SUMMARY OF JOB INFORMATION
  STEP      INC     ATT  ITRS     TOT TIME     STEP TIME      INC TIME
     1          1     1     2  0.100000E+01  0.100000E+01  0.100000E+01
     1          2     1     2  0.200000E+01  0.200000E+01  0.100000E+01
     1          3     1     2  0.300000E+01  0.300000E+01  0.100000E+01
     1          4     1     2  0.400000E+01  0.400000E+01  0.100000E+01
     1          5     1     2  0.500000E+01  0.500000E+01  0.100000E+01
