*HEADING
SimOps Thermal Analysis: mesh.msh
*NODE
1, 0.000000, 0.000000, 0.000000
2, 0.000000, 0.000000, 0.100000
3, 0.000000, 0.010000, 0.000000
4, 0.000000, 0.010000, 0.100000
5, 0.010000, 0.000000, 0.000000
6, 0.010000, 0.000000, 0.100000
7, 0.010000, 0.010000, 0.000000
8, 0.010000, 0.010000, 0.100000
9, 0.000000, 0.000000, 0.001982
10, 0.000000, 0.000000, 0.004011
11, 0.000000, 0.000000, 0.005993
12, 0.000000, 0.000000, 0.008008
13, 0.000000, 0.000000, 0.010005
14, 0.000000, 0.000000, 0.011987
15, 0.000000, 0.000000, 0.014016
16, 0.000000, 0.000000, 0.015998
17, 0.000000, 0.000000, 0.017981
18, 0.000000, 0.000000, 0.020010
19, 0.000000, 0.000000, 0.021991
20, 0.000000, 0.000000, 0.024017
** ... 1809 like lines cut
*ELEMENT, TYPE=C3D4, ELSET=E_Vol
2573, 1605, 1618, 1429, 1380
2574, 1713, 1800, 1364, 1424
2575, 1343, 1564, 789, 1648
2576, 1313, 622, 1335, 1501
2577, 1761, 1284, 1827, 1695
2578, 1793, 267, 1394, 1611
2579, 1385, 543, 542, 1531
2580, 623, 1313, 622, 1469
2581, 267, 78, 1611, 1793
2582, 1358, 1400, 1290, 1664
2583, 98, 99, 1740, 1161
2584, 1826, 1429, 250, 1618
2585, 1761, 1284, 220, 1827
2586, 1810, 1369, 247, 1589
2587, 1161, 99, 1740, 1674
2588, 1385, 543, 1531, 1537
2589, 1358, 1290, 1315, 1664
2590, 1123, 1572, 1346, 1649
2591, 1346, 1572, 371, 1649
2592, 447, 1564, 1343, 1648
** ... 6599 like lines cut
*ELEMENT, TYPE=S3, ELSET=E_Skin
1, 1, 9, 477
2, 58, 1, 477
3, 57, 2, 475
4, 2, 111, 475
5, 3, 61, 476
6, 62, 3, 476
7, 4, 110, 478
8, 114, 4, 478
9, 9, 10, 359
10, 9, 359, 477
11, 10, 11, 272
12, 10, 272, 359
13, 11, 12, 393
14, 272, 11, 393
15, 12, 13, 254
16, 12, 254, 393
17, 13, 14, 463
18, 254, 13, 463
19, 14, 15, 479
20, 463, 14, 479
** ... 2552 like lines cut
*MATERIAL, NAME=Mat1
*CONDUCTIVITY
0.15
*DENSITY
2.7e-06
*SPECIFIC HEAT
900.0
*SOLID SECTION, ELSET=E_Vol, MATERIAL=Mat1
*SHELL SECTION, ELSET=E_Skin, MATERIAL=Mat1
1.0
*NSET, NSET=N_All
1, 2, 3, 4, 5, 6, 7, 8, 9, 10
11, 12, 13, 14, 15, 16, 17, 18, 19, 20
21, 22, 23, 24, 25, 26, 27, 28, 29, 30
31, 32, 33, 34, 35, 36, 37, 38, 39, 40
41, 42, 43, 44, 45, 46, 47, 48, 49, 50
51, 52, 53, 54, 55, 56, 57, 58, 59, 60
61, 62, 63, 64, 65, 66, 67, 68, 69, 70
71, 72, 73, 74, 75, 76, 77, 78, 79, 80
81, 82, 83, 84, 85, 86, 87, 88, 89, 90
91, 92, 93, 94, 95, 96, 97, 98, 99, 100
101, 102, 103, 104, 105, 106, 107, 108, 109, 110
111, 112, 113, 114, 115, 116, 117, 118, 119, 120
121, 122, 123, 124, 125, 126, 127, 128, 129, 130
131, 132, 133, 134, 135, 136, 137, 138, 139, 140
141, 142, 143, 144, 145, 146, 147, 148, 149, 150
151, 152, 153, 154, 155, 156, 157, 158, 159, 160
161, 162, 163, 164, 165, 166, 167, 168, 169, 170
171, 172, 173, 174, 175, 176, 177, 178, 179, 180
181, 182, 183, 184, 185, 186, 187, 188, 189, 190
191, 192, 193, 194, 195, 196, 197, 198, 199, 200
** ... 163 like lines cut
*INITIAL CONDITIONS, TYPE=TEMPERATURE
N_All, 300.0
*STEP
*HEAT TRANSFER, STEADY STATE
*BOUNDARY
1241, 11, 11, 300.0
1242, 11, 11, 300.0
1243, 11, 11, 300.0
1244, 11, 11, 300.0
1245, 11, 11, 300.0
1246, 11, 11, 300.0
1247, 11, 11, 300.0
1248, 11, 11, 300.0
1249, 11, 11, 300.0
1250, 11, 11, 300.0
1251, 11, 11, 300.0
1252, 11, 11, 300.0
1253, 11, 11, 300.0
1254, 11, 11, 300.0
1255, 11, 11, 300.0
1256, 11, 11, 300.0
1257, 11, 11, 300.0
1258, 11, 11, 300.0
1259, 11, 11, 300.0
1260, 11, 11, 300.0
** ... 4 like lines cut
*DFLUX
E_Vol, BF, 0.001
*NODE PRINT, NSET=N_All, FREQUENCY=1
NT
*END STEP
