*HEADING
SimOps Thermal Analysis: Cylinder_MedFi_Robust.msh
*NODE
1, 25.000000, 0.000000, 50.000000
2, 25.000000, 0.000000, 0.000000
3, 50.000000, 0.000000, 50.000000
4, 50.000000, 0.000000, 0.000000
5, 24.824527, 2.956829, 50.000000
6, 24.300573, 5.872151, 50.000000
7, 23.435492, 8.705041, 50.000000
8, 22.241427, 11.415731, 50.000000
9, 20.735142, 13.966169, 50.000000
10, 18.937781, 16.320553, 50.000000
11, 16.874575, 18.445832, 50.000000
12, 14.574487, 20.312172, 50.000000
13, 12.069805, 21.893374, 50.000000
14, 9.395690, 23.167240, 50.000000
15, 6.589679, 24.115890, 50.000000
16, 3.691164, 24.726005, 50.000000
17, 0.740833, 24.989021, 50.000000
18, -2.219897, 24.901246, 50.000000
19, -5.149465, 24.463912, 50.000000
20, -8.006746, 23.683159, 50.000000
** ... 10493 like lines cut
*ELEMENT, TYPE=C3D4, ELSET=Eall
9531, 5331, 6209, 6024, 7523
9532, 4782, 6076, 5409, 6957
9533, 5926, 8201, 7167, 6575
9534, 8350, 7585, 5725, 7485
9535, 6428, 1863, 8894, 5609
9536, 5065, 5405, 6075, 6875
9537, 5279, 6236, 5777, 7556
9538, 7231, 7277, 5454, 6690
9539, 4923, 6291, 5587, 6396
9540, 6765, 8947, 5514, 8761
9541, 6676, 8469, 5412, 9009
9542, 5438, 6100, 4878, 9308
9543, 5279, 6075, 6236, 7556
9544, 7231, 7277, 6690, 2486
9545, 6326, 7606, 6906, 8051
9546, 2446, 5569, 8105, 1886
9547, 5772, 8160, 7430, 8566
9548, 7485, 7767, 7585, 5725
9549, 544, 929, 6538, 7447
9550, 4978, 6561, 6393, 7327
** ... 47877 like lines cut
*MATERIAL, NAME=ALUMINUM
*CONDUCTIVITY
150.0
*SOLID SECTION, ELSET=Eall, MATERIAL=ALUMINUM
*STEP
*HEAT TRANSFER, STEADY STATE
*BOUNDARY
1, 11, 11, 800.0
3, 11, 11, 800.0
5, 11, 11, 800.0
6, 11, 11, 800.0
7, 11, 11, 800.0
8, 11, 11, 800.0
9, 11, 11, 800.0
10, 11, 11, 800.0
11, 11, 11, 800.0
12, 11, 11, 800.0
13, 11, 11, 800.0
14, 11, 11, 800.0
15, 11, 11, 800.0
16, 11, 11, 800.0
17, 11, 11, 800.0
18, 11, 11, 800.0
19, 11, 11, 800.0
20, 11, 11, 800.0
21, 11, 11, 800.0
22, 11, 11, 800.0
** ... 3298 like lines cut
*NODE FILE
NT
*END STEP
