*HEADING
SimOps Thermal Analysis: mesh.msh
*NODE
1, 0.000000, 0.000000, 0.000000
2, 0.000000, 0.000000, 0.050000
3, 0.000000, 0.010000, 0.000000
4, 0.000000, 0.010000, 0.050000
5, 0.010000, 0.000000, 0.000000
6, 0.010000, 0.000000, 0.050000
7, 0.010000, 0.010000, 0.000000
8, 0.010000, 0.010000, 0.050000
9, 0.000000, 0.000000, 0.002002
10, 0.000000, 0.000000, 0.004002
11, 0.000000, 0.000000, 0.006001
12, 0.000000, 0.000000, 0.008003
13, 0.000000, 0.000000, 0.010000
14, 0.000000, 0.000000, 0.012002
15, 0.000000, 0.000000, 0.013999
16, 0.000000, 0.000000, 0.016001
17, 0.000000, 0.000000, 0.018003
18, 0.000000, 0.000000, 0.020000
19, 0.000000, 0.000000, 0.021997
20, 0.000000, 0.000000, 0.023999
** ... 955 like lines cut
*ELEMENT, TYPE=C3D4, ELSET=E_Vol
1365, 279, 943, 731, 776
1366, 718, 538, 698, 778
1367, 780, 762, 830, 717
1368, 259, 727, 229, 771
1369, 338, 943, 905, 731
1370, 338, 943, 731, 279
1371, 265, 730, 946, 776
1372, 184, 826, 708, 865
1373, 109, 110, 582, 827
1374, 229, 771, 727, 728
1375, 336, 946, 906, 776
1376, 336, 946, 776, 265
1377, 718, 698, 538, 761
1378, 510, 727, 767, 808
1379, 780, 762, 717, 346
1380, 154, 725, 948, 740
1381, 538, 536, 718, 761
1382, 261, 772, 729, 833
1383, 184, 757, 708, 826
1384, 346, 717, 349, 762
** ... 3508 like lines cut
*ELEMENT, TYPE=S3, ELSET=E_Skin
1, 1, 9, 255
2, 33, 1, 255
3, 32, 2, 254
4, 2, 61, 254
5, 3, 36, 256
6, 37, 3, 256
7, 4, 60, 257
8, 64, 4, 257
9, 9, 10, 213
10, 9, 213, 255
11, 10, 11, 151
12, 10, 151, 213
13, 11, 12, 200
14, 151, 11, 200
15, 12, 13, 149
16, 12, 149, 200
17, 13, 14, 176
18, 149, 13, 176
19, 14, 15, 153
20, 14, 153, 176
** ... 1344 like lines cut
*MATERIAL, NAME=Mat1
*CONDUCTIVITY
0.15
*DENSITY
2.7e-06
*SPECIFIC HEAT
900.0
*SOLID SECTION, ELSET=E_Vol, MATERIAL=Mat1
*SHELL SECTION, ELSET=E_Skin, MATERIAL=Mat1
1.0
*NSET, NSET=N_All
1, 2, 3, 4, 5, 6, 7, 8, 9, 10
11, 12, 13, 14, 15, 16, 17, 18, 19, 20
21, 22, 23, 24, 25, 26, 27, 28, 29, 30
31, 32, 33, 34, 35, 36, 37, 38, 39, 40
41, 42, 43, 44, 45, 46, 47, 48, 49, 50
51, 52, 53, 54, 55, 56, 57, 58, 59, 60
61, 62, 63, 64, 65, 66, 67, 68, 69, 70
71, 72, 73, 74, 75, 76, 77, 78, 79, 80
81, 82, 83, 84, 85, 86, 87, 88, 89, 90
91, 92, 93, 94, 95, 96, 97, 98, 99, 100
101, 102, 103, 104, 105, 106, 107, 108, 109, 110
111, 112, 113, 114, 115, 116, 117, 118, 119, 120
121, 122, 123, 124, 125, 126, 127, 128, 129, 130
131, 132, 133, 134, 135, 136, 137, 138, 139, 140
141, 142, 143, 144, 145, 146, 147, 148, 149, 150
151, 152, 153, 154, 155, 156, 157, 158, 159, 160
161, 162, 163, 164, 165, 166, 167, 168, 169, 170
171, 172, 173, 174, 175, 176, 177, 178, 179, 180
181, 182, 183, 184, 185, 186, 187, 188, 189, 190
191, 192, 193, 194, 195, 196, 197, 198, 199, 200
** ... 78 like lines cut
*INITIAL CONDITIONS, TYPE=TEMPERATURE
N_All, 300.0
*STEP
*HEAT TRANSFER, STEADY STATE
*BOUNDARY
*ELSET, ELSET=E_FluxSelect
1267,
1268,
1269,
1270,
1271,
1272,
1273,
1274,
1275,
1276,
1277,
1278,
1279,
1280,
1281,
1282,
1283,
1284,
1285,
1286,
** ... 10 like lines cut
*SURFACE, NAME=S_Flux, TYPE=ELEMENT
E_FluxSelect, S1
*DFLUX
S_Flux, S, 0.049999999999999996
*NODE PRINT, NSET=N_All, FREQUENCY=1
NT
*END STEP
