*HEADING
SimOps Thermal Analysis: Cylinder_GCI_Tet4.msh
*NODE
1, 25.000000, 0.000000, 50.000000
2, 25.000000, 0.000000, 0.000000
3, 50.000000, 0.000000, 50.000000
4, 50.000000, 0.000000, 0.000000
5, 24.871733, 2.529208, 50.000000
6, 24.488249, 5.032463, 50.000000
7, 23.853481, 7.484078, 50.000000
8, 22.973945, 9.858896, 50.000000
9, 21.858665, 12.132549, 50.000000
10, 20.519086, 14.281705, 50.000000
11, 18.968953, 16.284312, 50.000000
12, 17.224173, 18.119820, 50.000000
13, 15.302650, 19.769393, 50.000000
14, 13.224100, 21.216106, 50.000000
15, 11.009854, 22.445113, 50.000000
16, 8.682631, 23.443803, 50.000000
17, 6.266313, 24.201928, 50.000000
18, 3.785694, 24.711708, 50.000000
19, 1.266229, 24.967913, 50.000000
20, -1.266229, 24.967913, 50.000000
** ... 16002 like lines cut
*ELEMENT, TYPE=C3D4, ELSET=Eall
4405, 16021, 8759, 16004, 5543
4406, 6862, 12569, 9062, 14544
4407, 8167, 8663, 6877, 9370
4408, 9445, 8565, 8640, 6779
4409, 865, 10743, 7955, 11074
4410, 6653, 8472, 9072, 7273
4411, 15012, 10810, 14056, 7664
4412, 6524, 9800, 6418, 13079
4413, 3202, 7707, 9563, 10845
4414, 9190, 10892, 7333, 13773
4415, 8719, 12107, 14343, 15383
4416, 12998, 8561, 12887, 11945
4417, 7040, 10739, 8519, 14182
4418, 8132, 10056, 3804, 11068
4419, 2049, 3612, 8303, 9548
4420, 971, 10462, 8668, 14293
4421, 8299, 11061, 10753, 12535
4422, 8221, 13672, 10200, 11494
4423, 9150, 9309, 6708, 13169
4424, 8680, 7931, 14459, 13322
** ... 75319 like lines cut
*MATERIAL, NAME=ALUMINUM
*CONDUCTIVITY
150.0
*SOLID SECTION, ELSET=Eall, MATERIAL=ALUMINUM
*STEP
*HEAT TRANSFER, STEADY STATE
*BOUNDARY
1, 11, 11, 800.0
3, 11, 11, 800.0
5, 11, 11, 800.0
6, 11, 11, 800.0
7, 11, 11, 800.0
8, 11, 11, 800.0
9, 11, 11, 800.0
10, 11, 11, 800.0
11, 11, 11, 800.0
12, 11, 11, 800.0
13, 11, 11, 800.0
14, 11, 11, 800.0
15, 11, 11, 800.0
16, 11, 11, 800.0
17, 11, 11, 800.0
18, 11, 11, 800.0
19, 11, 11, 800.0
20, 11, 11, 800.0
21, 11, 11, 800.0
22, 11, 11, 800.0
** ... 2368 like lines cut
*NODE FILE
NT
*END STEP
